*Heading
File generated by TexGen v3.13.1
************
*** MESH ***
************
*Node
1, -0.5, -0.4, -0.01
2, -0.5, -0.4, 0.15
3, -0.5, -0.4, 0.21
4, -0.5, 0.399647, -0.01
5, -0.5, 0.399647, 0.150377
6, -0.5, 0.399647, 0.21
7, 2.5, -0.4, -0.01
8, 2.5, -0.4, 0.15
9, 2.5, -0.4, 0.21
10, 2.5, 0.399647, -0.01
11, 2.5, 0.399647, 0.150377
12, 2.5, 0.399647, 0.21
13, 0.399501, -0.5, -0.01
14, 0.399501, -0.5, 0.030025
15, 0.399501, -0.5, 0.21
16, -0.399463, -0.5, -0.01
17, -0.399463, -0.5, 0.0699075
18, -0.399463, -0.5, 0.21
19, 0.399501, 0.5, -0.01
20, 0.399501, 0.5, 0.030025
** ... 7268 like lines cut
*Element, Type=C3D10
1, 49, 16, 89, 90, 1057, 1058, 1059, 1060, 1061, 1062
2, 49, 16, 90, 17, 1057, 1061, 1060, 1063, 1064, 1065
3, 49, 17, 90, 50, 1063, 1065, 1060, 1066, 1067, 1068
4, 50, 17, 90, 91, 1067, 1065, 1068, 1069, 1070, 1071
5, 50, 17, 91, 51, 1067, 1070, 1069, 1072, 1073, 1074
6, 51, 17, 91, 18, 1073, 1070, 1074, 1075, 1076, 1077
7, 51, 18, 91, 92, 1075, 1077, 1074, 1078, 1079, 1080
8, 303, 163, 333, 304, 1081, 1082, 1083, 1084, 1085, 1086
9, 304, 163, 333, 334, 1085, 1082, 1086, 1087, 1088, 1089
10, 304, 163, 334, 164, 1085, 1088, 1087, 1090, 1091, 1092
11, 304, 164, 334, 305, 1090, 1092, 1087, 1093, 1094, 1095
12, 305, 164, 334, 165, 1094, 1092, 1095, 1096, 1097, 1098
13, 305, 165, 334, 335, 1096, 1098, 1095, 1099, 1100, 1101
14, 305, 165, 335, 306, 1096, 1100, 1099, 1102, 1103, 1104
15, 306, 165, 335, 166, 1103, 1100, 1104, 1105, 1106, 1107
16, 306, 166, 335, 336, 1105, 1107, 1104, 1108, 1109, 1110
17, 181, 65, 4, 182, 1111, 1112, 1113, 1114, 1115, 1116
18, 182, 65, 4, 66, 1115, 1112, 1116, 1117, 1118, 1119
19, 182, 66, 4, 183, 1117, 1119, 1116, 1120, 1121, 1122
20, 183, 66, 4, 67, 1121, 1119, 1122, 1123, 1124, 1125
** ... 4679 like lines cut
********************
*** ORIENTATIONS ***
********************
** Orientation vectors
** 1st vector represents the fibre direction
** 2nd vector is an arbitrary vector perpendicular to the first
*Distribution Table, Name=TexGenOrientationVectors
COORD3D,COORD3D
*Distribution, Location=Element, Table=TexGenOrientationVectors, Name=TexGenOrientationVectors, Input=02Gap.ori
*Orientation, Name=TexGenOrientations, Definition=coordinates
TexGenOrientationVectors
1, 0
********************
*** ELEMENT SETS ***
********************
** TexGen generates a number of element sets:
** All - Contains all elements
** Matrix - Contains all elements belonging to the matrix
** YarnX - Where X represents the yarn index
*ElSet, ElSet=All, Generate
1, 4699, 1
*ElSet, ElSet=Matrix
1, 2, 3, 4, 5, 6, 7, 8, 9, 10, 14, 15, 16, 17, 18, 19
20, 21, 23, 24, 25, 26, 27, 28, 29, 30, 31, 32, 33, 34, 35, 38
39, 40, 41, 42, 43, 44, 45, 46, 47, 51, 52, 53, 54, 55, 56, 57
58, 59, 60, 61, 62, 63, 67, 68, 69, 70, 71, 72, 73, 76, 77, 78
82, 83, 84, 85, 86, 87, 88, 89, 90, 91, 92, 93, 94, 95, 96, 97
99, 100, 101, 102, 103, 104, 106, 107, 108, 109, 110, 111, 112, 113, 117, 118
119, 123, 124, 125, 126, 127, 128, 129, 130, 133, 134, 135, 136, 137, 138, 139
140, 141, 142, 143, 144, 145, 148, 149, 150, 151, 152, 153, 157, 158, 159, 160
161, 162, 163, 164, 165, 166, 167, 168, 169, 170, 173, 174, 175, 176, 177, 178
179, 180, 181, 185, 186, 187, 188, 189, 190, 191, 192, 193, 194, 195, 196, 197
198, 202, 203, 204, 207, 208, 209, 210, 211, 212, 216, 217, 218, 219, 220, 221
222, 223, 224, 225, 226, 227, 228, 229, 230, 231, 234, 235, 236, 237, 238, 239
242, 243, 244, 245, 246, 247, 248, 249, 251, 252, 253, 257, 258, 259, 260, 261
262, 265, 266, 267, 271, 272, 273, 274, 275, 276, 279, 280, 281, 285, 286, 287
288, 289, 290, 294, 295, 296, 300, 301, 302, 303, 304, 305, 306, 307, 308, 309
310, 311, 312, 316, 317, 318, 319, 320, 321, 322, 323, 324, 325, 329, 330, 331
332, 333, 334, 335, 336, 337, 338, 339, 340, 341, 342, 345, 346, 347, 348, 349
350, 351, 352, 354, 355, 356, 357, 358, 359, 360, 361, 362, 363, 364, 365, 369
370, 371, 375, 376, 377, 378, 379, 380, 381, 382, 384, 385, 386, 387, 388, 389
390, 391, 392, 393, 394, 395, 396, 397, 398, 402, 403, 404, 405, 406, 407, 410
** ... 181 like lines cut
*ElSet, ElSet=Yarn0
11, 12, 13, 22, 48, 49, 50, 74, 75, 120, 121, 122, 131, 132, 146, 147
182, 183, 184, 199, 200, 201, 254, 255, 256, 268, 269, 270, 277, 278, 297, 298
299, 326, 327, 328, 366, 367, 368, 383, 432, 433, 434, 451, 452, 504, 505, 518
519, 520, 557, 558, 586, 587, 588, 606, 607, 608, 615, 629, 630, 631, 643, 644
645, 679, 680, 688, 689, 690, 698, 699, 710, 711, 720, 721, 722, 730, 731, 732
755, 756, 757, 787, 815, 816, 839, 875, 876, 907, 948, 949, 981, 982, 983, 1007
1008, 1009, 1041, 1042, 1043, 1073, 1074, 1082, 1083, 1092, 1093, 1094, 1105, 1106, 1107, 1115
1116, 1117, 1125, 1126, 1127, 1149, 1150, 1151, 1174, 1175, 1176, 1205, 1206, 1214, 1221, 1222
1230, 1238, 1239, 1240, 1249, 1250, 1251, 1263, 1264, 1265, 1273, 1274, 1275, 1288, 1300, 1307
1308, 1309, 1322, 1323, 1336, 1337, 1338, 1350, 1361, 1362, 1363, 1371, 1385, 1386, 1398, 1415
1416, 1417, 1430, 1431, 1438, 1451, 1452, 1453, 1467, 1475, 1489, 1490, 1491, 1504, 1505, 1517
1518, 1519, 1532, 1533, 1534, 1546, 1547, 1548, 1560, 1572, 1573, 1574, 1587, 1588, 1589, 1596
1597, 1598, 1609, 1610, 1611, 1624, 1625, 1638, 1639, 1640, 1653, 1654, 1655, 1673, 1674, 1675
1687, 1688, 1710, 1711, 1723, 1736, 1737, 1750, 1751, 1752, 1765, 1766, 1779, 1780, 1781, 1788
1789, 1790, 1803, 1804, 1805, 1823, 1824, 1825, 1838, 1839, 1840, 1847, 1848, 1849, 1860, 1861
1862, 1881, 1882, 1895, 1896, 1897, 1904, 1905, 1906, 1918, 1919, 1920, 1933, 1934, 1935, 1948
1967, 1968, 1981, 1982, 1983, 1996, 1997, 1998, 2011, 2012, 2019, 2020, 2021, 2029, 2030, 2031
2044, 2045, 2046, 2064, 2065, 2084, 2102, 2103, 2104, 2111, 2112, 2113, 2126, 2127, 2128, 2141
2142, 2143, 2156, 2157, 2158, 2171, 2172, 2173, 2188, 2189, 2198, 2199, 2200, 2207, 2208, 2209
2222, 2223, 2224, 2236, 2237, 2238, 2251, 2264, 2265, 2266, 2295, 2296, 2308, 2309, 2310, 2323
** ... 28 like lines cut
*ElSet, ElSet=Yarn1
36, 37, 105, 154, 155, 156, 171, 172, 213, 214, 215, 240, 241, 250, 263, 264
291, 292, 293, 512, 513, 514, 534, 535, 536, 575, 576, 577, 673, 674, 675, 706
739, 740, 741, 749, 750, 751, 764, 765, 773, 781, 782, 783, 794, 795, 796, 871
883, 891, 892, 893, 901, 902, 903, 914, 923, 924, 925, 1258, 1259, 1282, 1283, 1284
1295, 1296, 1332, 1345, 1346, 1410, 1411, 1424, 1425, 1426, 1541, 1542, 1555, 1556, 1567, 1568
1581, 1582, 1583, 1759, 1760, 1761, 1773, 1774, 1775, 2278, 2279, 2280, 2289, 2290, 2291, 2332
2333, 2334, 2356, 2357, 2358, 2371, 2372, 2373, 2385, 2386, 2387, 2399, 2400, 2401, 2414, 2415
2428, 2429, 2430, 2443, 2444, 2445, 2458, 2459, 2460, 2675, 2688, 2689, 2690, 2703, 2704, 2705
2717, 2718, 2719, 2732, 2733, 2746, 2747, 2748, 2761, 2762, 2763, 2774, 2775, 2776, 2789, 2790
2791, 2802, 2803, 2804, 2813, 2814, 2815, 2828, 2829, 2830, 2843, 2844, 2845, 2858, 2859, 2860
2965, 2966, 2967, 3010, 3011, 3012, 3079, 3080, 3081, 3114, 3127, 3128, 3129, 3142, 3143, 3144
3157, 3158, 3159, 3172, 3173, 3174, 3187, 3188, 3189, 3202, 3203, 3204, 3226, 3227, 3228, 3241
3254, 3255, 3276, 3277, 3290, 3291, 3292, 3305, 3306, 3307, 3319, 3320, 3321, 3334, 3335, 3336
3347, 3348, 3349, 3658, 3670, 3671, 3705, 3723, 3724, 3725, 3738, 3739, 3740, 3753, 3754, 3755
4207, 4208, 4221, 4368, 4369, 4370, 4383, 4384, 4385, 4403, 4404, 4405, 4418, 4419, 4420, 4479
4480, 4481, 4499
*ElSet, ElSet=Yarn2
79, 80, 81, 98, 205, 206, 232, 233, 282, 283, 284, 353, 372, 373, 374, 399
400, 401, 418, 419, 420, 460, 461, 462, 487, 488, 566, 567, 568, 592, 593, 619
620, 621, 806, 807, 808, 820, 821, 822, 831, 832, 843, 844, 852, 853, 862, 863
864, 936, 953, 954, 955, 964, 965, 966, 974, 987, 988, 989, 997, 998, 999, 1313
1314, 1315, 1442, 1443, 1444, 1457, 1458, 1459, 1479, 1480, 1602, 1615, 1616, 1617, 1629, 1630
1631, 1644, 1645, 1664, 1665, 1666, 1679, 1680, 1692, 1794, 1795, 1796, 1809, 1810, 1811, 1853
1866, 1867, 1868, 1910, 1911, 1924, 1925, 1926, 1939, 1940, 1941, 1952, 1953, 1954, 2035, 2036
2037, 2050, 2051, 2052, 2069, 2070, 2071, 2117, 2118, 2119, 2132, 2133, 2134, 2147, 2148, 2149
2162, 2163, 2164, 2177, 2178, 2179, 2213, 2214, 2215, 2228, 2229, 2242, 2243, 2244, 2255, 2256
2257, 2270, 2271, 2879, 2880, 2881, 2894, 2895, 2896, 2956, 2957, 2958, 2986, 2987, 2988, 3001
3002, 3003, 3035, 3036, 3037, 3050, 3051, 3052, 3576, 3577, 3578, 3590, 3591, 3592, 3854, 3855
3856, 3869, 3870, 3871, 3884, 3885, 3886, 3899, 3900, 3901, 3914, 3915, 3916, 3929, 3930, 3931
3965, 3966, 3967, 4097, 4098, 4099, 4112, 4113, 4126, 4127, 4128, 4141, 4154, 4167, 4168, 4181
4182, 4193, 4194, 4195, 4239, 4250, 4251, 4264, 4265, 4266, 4279, 4280, 4281, 4309, 4310, 4311
4348, 4349, 4350, 4359, 4360, 4361, 4516, 4517, 4518, 4530, 4531, 4532, 4543, 4544, 4556, 4573
*ElSet, ElSet=Yarn3
64, 65, 66, 114, 115, 116, 313, 314, 315, 343, 344, 408, 409, 427, 428, 476
544, 553, 600, 601, 602, 638, 639, 652, 653, 654, 662, 663, 664, 1016, 1025, 1026
1027, 1036, 1037, 1050, 1059, 1060, 1061, 1069, 1101, 1134, 1135, 1143, 1144, 1145, 1158, 1159
1160, 1168, 1169, 1170, 1183, 1184, 1185, 1194, 1195, 1357, 1379, 1380, 1381, 1393, 1394, 1498
1499, 1500, 1512, 1513, 1526, 1527, 1528, 1704, 1705, 1706, 1718, 1719, 1730, 1731, 1732, 1744
1745, 1746, 1818, 1819, 1832, 1833, 1834, 1875, 1876, 1877, 1889, 1890, 1891, 1961, 1962, 1963
1975, 1976, 1977, 1990, 1991, 1992, 2005, 2006, 2007, 2078, 2079, 2080, 2096, 2097, 2098, 2303
2304, 2317, 2318, 2319, 2478, 2479, 2480, 2491, 2492, 2493, 2505, 2506, 2519, 2520, 2521, 2534
2535, 2536, 2547, 2548, 2549, 2562, 2563, 2564, 2577, 2578, 2579, 2592, 2593, 2594, 2607, 2608
2609, 2622, 2623, 2624, 2633, 2646, 2647, 2648, 2661, 2662, 2903, 2904, 2905, 2914, 2915, 2916
2927, 3064, 3065, 3066, 3094, 3095, 3096, 3362, 3363, 3374, 3375, 3376, 3394, 3395, 3413, 3414
3415, 3428, 3429, 3430, 3441, 3442, 3455, 3456, 3457, 3470, 3471, 3472, 3485, 3486, 3487, 3500
3501, 3502, 3515, 3516, 3517, 3528, 3540, 3541, 3542, 3555, 3556, 3557, 3599, 3600, 3601, 3614
3615, 3616, 3629, 3630, 3631, 3644, 3645, 3646, 3787, 3788, 3789, 3801, 3802, 3818, 3819, 3820
3833, 3834, 3835, 4026, 4027, 4028, 4041, 4042, 4043, 4056, 4057, 4058, 4071, 4072, 4073, 4622
4623, 4624, 4636, 4649, 4661, 4662, 4663
*****************
*** MATERIALS ***
*****************
*Material, Name=Mat0
*Elastic
3e+09, 0.2
*Expansion
6.5e-06
*Material, Name=Mat1
*Elastic, type=ENGINEERING CONSTANTS
2e+11, 1e+10, 1e+10, 0.3, 0.4, 0.4, 5e+09, 5e+09
5e+09
*Expansion, type=ORTHO
-2e-07, 3e-06, 3e-06
*Solid Section, ElSet=Matrix, Material=Mat0
1.0,
*Solid Section, ElSet=Yarn0, Material=Mat1, Orientation=TexGenOrientations
1.0,
*Solid Section, ElSet=Yarn1, Material=Mat1, Orientation=TexGenOrientations
1.0,
*Solid Section, ElSet=Yarn2, Material=Mat1, Orientation=TexGenOrientations
1.0,
*Solid Section, ElSet=Yarn3, Material=Mat1, Orientation=TexGenOrientations
1.0,
